  Page 1                                    Tue Apr 07 16:43:06 2026

  ******************************************************************
  *                           E P A N E T                          *
  *                   Hydraulic and Water Quality                  *
  *                   Analysis for Pipe Networks                   *
  *                         Version 2.2                            *
  ******************************************************************
  
  Analysis begun Tue Apr 07 16:43:06 2026

  Analysis ended Tue Apr 07 16:43:06 2026
