  Page 1                                    Tue Apr 07 13:42:12 2026

  ******************************************************************
  *                           E P A N E T                          *
  *                   Hydraulic and Water Quality                  *
  *                   Analysis for Pipe Networks                   *
  *                         Version 2.2                            *
  ******************************************************************
  
  Analysis begun Tue Apr 07 13:42:12 2026

  WARNING: Negative pressures at 0:00:00 hrs.
   
  Analysis ended Tue Apr 07 13:42:12 2026
