  Page 1                                    Thu Apr 09 15:48:09 2026

  ******************************************************************
  *                           E P A N E T                          *
  *                   Hydraulic and Water Quality                  *
  *                   Analysis for Pipe Networks                   *
  *                         Version 2.2                            *
  ******************************************************************
  
  Analysis begun Thu Apr 09 15:48:09 2026

  Analysis ended Thu Apr 09 15:48:09 2026
