  Page 1                                    Fri Apr 10 17:40:43 2026

  ******************************************************************
  *                           E P A N E T                          *
  *                   Hydraulic and Water Quality                  *
  *                   Analysis for Pipe Networks                   *
  *                         Version 2.2                            *
  ******************************************************************
  
  Analysis begun Fri Apr 10 17:40:43 2026

  Analysis ended Fri Apr 10 17:40:43 2026
