  Page 1                                    Thu Apr 09 20:25:17 2026

  ******************************************************************
  *                           E P A N E T                          *
  *                   Hydraulic and Water Quality                  *
  *                   Analysis for Pipe Networks                   *
  *                         Version 2.2                            *
  ******************************************************************
  
  Analysis begun Thu Apr 09 20:25:17 2026

  WARNING: Negative pressures at 0:00:00 hrs.
   
  Analysis ended Thu Apr 09 20:25:17 2026
