  Page 1                                    Fri Apr 10 13:01:37 2026

  ******************************************************************
  *                           E P A N E T                          *
  *                   Hydraulic and Water Quality                  *
  *                   Analysis for Pipe Networks                   *
  *                         Version 2.2                            *
  ******************************************************************
  
  Error 224: no tanks or reservoirs in network WARNING: Negative pressures at 0:00:00 hrs.
   
  Analysis ended Fri Apr 10 13:02:11 2026
