  Page 1                                    Fri Apr 10 11:25:52 2026

  ******************************************************************
  *                           E P A N E T                          *
  *                   Hydraulic and Water Quality                  *
  *                   Analysis for Pipe Networks                   *
  *                         Version 2.2                            *
  ******************************************************************
  
  Analysis begun Fri Apr 10 11:25:52 2026

  WARNING: Negative pressures at 0:00:00 hrs.
   
  Analysis ended Fri Apr 10 11:25:52 2026
